Circuit: * C:\Bruno\ITBA\6to cuatri\Electrónica II\TPS\TP2\Repo\E2-TPs\TP2\Simulacion\AmplificadorXD posta.asc

WARNING: Node N016 is floating.

Direct Newton iteration failed to find .op point.  (Use ".option noopiter" to skip.)
Starting Gmin stepping
Gmin = 10
Gmin = 1.07374
vernier = 0.5
vernier = 0.25
vernier = 0.125
vernier = 0.0625
Gmin = 1.12184
vernier = 0.03125
vernier = 0.015625
Gmin = 1.05021
vernier = 0.0078125
Gmin = 1.02792
vernier = 0.0104167
vernier = 0.00520833
vernier = 0.00694444
vernier = 0.00347222
Gmin = 1.02037
vernier = 0.00173611
Gmin = 1.01551
vernier = 0.00231481
vernier = 0.00115741
vernier = 0.00154321
Gmin = 1.01248
vernier = 0.000771604
vernier = 0.00102881
Gmin = 1.01046
vernier = 0.000514403
Gmin = 1.00904
vernier = 0.00068587
vernier = 0.000914493
vernier = 0.000457247
Gmin = 1.00777
vernier = 0.000609662
vernier = 0.000457246
Gmin = 1.00685
vernier = 0.000609662
vernier = 0.000457246
Gmin = 0
Gmin stepping failed

Starting source stepping with srcstepmethod=0
Source Step = 3.0303%
Source Step = 9.84848%
Source Step = 17.4242%
Source Step = 25%
Source Step = 32.5758%
Source Step = 40.1515%
vernier = 0.375
Source Step = 50.7576%
Source Step = 62.1212%
Source Step = 73.4848%
Source Step = 84.8485%
Source Step = 96.2121%
vernier = 0.5625
Source stepping succeeded in finding the operating point.


Date: Thu Jun 01 14:55:19 2023
Total elapsed time: 9.939 seconds.

tnom = 27
temp = 27
method = modified trap
totiter = 428741
traniter = 420098
tranpoints = 210021
accept = 210021
rejected = 0
matrix size = 127
fillins = 201
solver = Normal
Thread vector: 9.7/4.9[2] 2.7/1.9[2] 2.7/3.0[1] 0.7/1.3[1]  2592/500
Matrix Compiler1: 20.11 KB object code size  3.4/1.7/[0.9]
Matrix Compiler2: 15.34 KB object code size  2.6/1.9/[1.9]

