Circuit: * C:\Bruno\ITBA\6to cuatri\Electrónica II\TPS\TP2\Repo\E2-TPs\TP2\Simulacion\AmplificadorXD posta.asc

WARNING: Node N016 is floating.

WARNING: Less than two connections to node NC_01.  This node is used by RL.
Direct Newton iteration failed to find .op point.  (Use ".option noopiter" to skip.)
Starting Gmin stepping
Gmin = 10
Gmin = 1.07374
vernier = 0.5
vernier = 0.25
vernier = 0.125
vernier = 0.0625
Gmin = 1.12184
vernier = 0.03125
vernier = 0.015625
Gmin = 1.05021
vernier = 0.0078125
Gmin = 1.02792
vernier = 0.0104167
vernier = 0.00520833
vernier = 0.00694444
vernier = 0.00347222
Gmin = 1.02037
vernier = 0.00173611
Gmin = 1.01551
vernier = 0.00231481
vernier = 0.00115741
vernier = 0.00154321
Gmin = 1.01248
vernier = 0.000771604
vernier = 0.00102881
Gmin = 1.01046
vernier = 0.000514403
Gmin = 1.00904
vernier = 0.00068587
vernier = 0.000914493
vernier = 0.000457247
Gmin = 1.00777
vernier = 0.000609662
vernier = 0.000457246
Gmin = 1.00685
vernier = 0.000609662
vernier = 0.000457246
Gmin = 0
Gmin stepping failed

Starting source stepping with srcstepmethod=0
Source Step = 3.0303%
Source Step = 33.3333%
Source Step = 63.6364%
Source Step = 93.9394%
Source stepping succeeded in finding the operating point.


Date: Thu Jun 08 08:42:38 2023
Total elapsed time: 11.311 seconds.

tnom = 27
temp = 27
method = modified trap
totiter = 428357
traniter = 420269
tranpoints = 210025
accept = 210024
rejected = 1
matrix size = 129
fillins = 200
solver = Normal
Thread vector: 11.0/5.1[2] 2.7/1.9[2] 3.7/3.2[2] 0.9/1.7[1]  2592/500
Matrix Compiler1: 20.21 KB object code size  3.7/1.7/[0.9]
Matrix Compiler2: 15.43 KB object code size  1.8/2.1/[1.5]

