Circuit: * C:\Users\Agus\Documents\GitHub\E2-TPs\TP2\Simulacion\AmplificadorXD posta.asc

Warning: Multiple definitions of model "2scr375p" Type: BJT
Warning: Multiple definitions of model "bc857b" Type: BJT
Warning: Multiple definitions of model "bc847c" Type: BJT
Warning: Multiple definitions of model "bc847b" Type: BJT
WARNING: Node N016 is floating.

Direct Newton iteration failed to find .op point.  (Use ".option noopiter" to skip.)
Starting Gmin stepping
Gmin = 10
Gmin = 1.07374
vernier = 0.5
vernier = 0.25
vernier = 0.125
vernier = 0.0625
Gmin = 1.12184
vernier = 0.03125
vernier = 0.015625
Gmin = 1.05021
vernier = 0.0078125
Gmin = 1.02792
vernier = 0.0104167
vernier = 0.00520833
vernier = 0.00694444
vernier = 0.00347222
Gmin = 1.02037
vernier = 0.00173611
Gmin = 1.01551
vernier = 0.00231481
vernier = 0.00115741
vernier = 0.00154321
Gmin = 1.01248
vernier = 0.000771604
vernier = 0.00102881
Gmin = 1.01046
vernier = 0.000514403
Gmin = 1.00904
vernier = 0.00068587
vernier = 0.000914493
vernier = 0.000457247
Gmin = 1.00777
vernier = 0.000609662
vernier = 0.000457246
Gmin = 1.00685
vernier = 0.000609662
vernier = 0.000457246
Gmin = 0
Gmin stepping failed

Starting source stepping with srcstepmethod=0
Source Step = 3.0303%
Source Step = 5.49242%
Source Step = 5.96591%
Source Step = 6.43939%
Source Step = 6.91288%
Source Step = 7.38636%
vernier = 0.0234375
Source Step = 7.93087%
Source Step = 8.6411%
Source Step = 9.35133%
Source Step = 10.0616%
Source Step = 10.7718%
vernier = 0.0351562
Source Step = 11.553%
Source Step = 12.6184%
Source Step = 13.6837%
Source Step = 14.7491%
Source Step = 15.8144%
vernier = 0.0527344
Source Step = 16.933%
Source Step = 18.531%
Source Step = 20.129%
Source Step = 21.727%
Source Step = 23.325%
Source Step = 24.9231%
vernier = 0.0791016
Source Step = 27.3201%
Source Step = 29.7171%
Source Step = 32.1141%
Source Step = 34.5111%
Source Step = 36.9081%
vernier = 0.118652
Source Step = 40.3838%
Source Step = 43.9793%
Source Step = 47.5749%
Source Step = 51.1704%
Source Step = 54.7659%
vernier = 0.177979
Source Step = 59.7997%
Source Step = 65.1929%
Source Step = 70.5862%
Source Step = 75.9795%
Source Step = 81.3728%
vernier = 0.266968
Source Step = 88.6537%
Source Step = 96.7437%
Source stepping succeeded in finding the operating point.


Date: Wed May 31 13:20:44 2023
Total elapsed time: 2.279 seconds.

tnom = 27
temp = 27
method = trap
totiter = 9632
traniter = 0
tranpoints = 0
accept = 0
rejected = 0
matrix size = 127
fillins = 199
solver = Normal
Avg thread counts: 2.0/0.0/1.6/1.0
Matrix Compiler1:    1057 opcodes
Matrix Compiler2: 15.40 KB object code size  2.3/2.5/[1.9]

