Circuit: * C:\Users\Agus\Documents\GitHub\E2-TPs\TP2\TP2\AmplificadorXD.asc

Warning: Multiple definitions of model "2scr375p" Type: BJT
Warning: Multiple definitions of model "bc857b" Type: BJT
Warning: Multiple definitions of model "bc847c" Type: BJT
Warning: Multiple definitions of model "bc847b" Type: BJT
WARNING: Node N024 is floating.
WARNING: Node NC_01 is floating.

WARNING: Less than two connections to node nc_01.  This node is used by c7.
WARNING: Less than two connections to node nc_02.  This node is used by q22.
Direct Newton iteration failed to find .op point.  (Use ".option noopiter" to skip.)
Starting Gmin stepping
Gmin = 10
Gmin = 1.07374
vernier = 0.5
vernier = 0.25
vernier = 0.125
vernier = 0.0625
Gmin = 1.12184
vernier = 0.03125
vernier = 0.015625
Gmin = 1.05021
vernier = 0.0078125
Gmin = 1.02792
vernier = 0.0104167
vernier = 0.00520833
vernier = 0.00694444
vernier = 0.00347222
Gmin = 1.02037
vernier = 0.00173611
Gmin = 1.01551
vernier = 0.00231481
vernier = 0.00115741
vernier = 0.00154321
Gmin = 1.01248
vernier = 0.000771604
vernier = 0.00102881
Gmin = 1.01046
vernier = 0.000514403
Gmin = 1.00904
vernier = 0.00068587
vernier = 0.000914493
vernier = 0.000457247
Gmin = 1.00777
vernier = 0.000609662
vernier = 0.000457246
Gmin = 1.00685
vernier = 0.000609662
vernier = 0.000457246
Gmin = 0
Gmin stepping failed

Starting source stepping with srcstepmethod=0
Source Step = 3.0303%
Source Step = 33.3333%
Source Step = 63.6364%
Source Step = 93.9394%
Source stepping succeeded in finding the operating point.


Date: Sun May 28 19:59:53 2023
Total elapsed time: 1.699 seconds.

tnom = 27
temp = 27
method = trap
totiter = 8211
traniter = 0
tranpoints = 0
accept = 0
rejected = 0
matrix size = 123
fillins = 183
solver = Normal
Avg thread counts: 1.0/0.0/3.0/1.0
Matrix Compiler1:    1048 opcodes
Matrix Compiler2: 14.97 KB object code size  2.2/2.9/[2.1]

