Circuit: * C:\Users\Agus\Documents\GitHub\E2-TPs\TP2\TP2\circuito libro Agus.asc

Warning: Multiple definitions of model "2scr375p" Type: BJT
Warning: Multiple definitions of model "bc857b" Type: BJT
Warning: Multiple definitions of model "bc847c" Type: BJT
Warning: Multiple definitions of model "bc847b" Type: BJT
WARNING: Node N032 is floating.

Direct Newton iteration failed to find .op point.  (Use ".option noopiter" to skip.)
Starting Gmin stepping
Gmin = 10
Gmin = 1.07374
Gmin = 0.115292
Gmin = 0.0123794
Gmin = 0.00132923
Gmin = 0.000142725
Gmin = 1.5325e-05
vernier = 0.5
vernier = 0.25
vernier = 0.125
vernier = 0.0625
Gmin = 1.28209e-05
vernier = 0.03125
vernier = 0.0416667
Gmin = 1.18309e-05
vernier = 0.0555555
vernier = 0.074074
Gmin = 1.02834e-05
vernier = 0.0987653
Gmin = 8.25471e-06
vernier = 0.131687
vernier = 0.175583
Gmin = 5.7236e-06
vernier = 0.23411
vernier = 0.312147
Gmin = 3.21273e-06
vernier = 0.416196
Gmin = 1.31344e-06
vernier = 0.554928
vernier = 0.739903
Gmin = 3.05523e-07
vernier = 0.986537
vernier = 1
Gmin = 3.70997e-08
Gmin = 3.98355e-09
Gmin = 4.2773e-10
Gmin = 4.59272e-11
Gmin = 4.93139e-12
Gmin = 5.29504e-13
Gmin = 0
Gmin stepping succeeded in finding the operating point.


Date: Mon May 22 16:34:02 2023
Total elapsed time: 101.903 seconds.

tnom = 27
temp = 27
method = modified trap
totiter = 4222440
traniter = 4220920
tranpoints = 1397291
accept = 951824
rejected = 445467
matrix size = 110
fillins = 185
solver = Normal
Avg thread counts: 1.0/3.0/1.0/1.0
Matrix Compiler1: 18.03 KB object code size  4.6/2.4/[1.5]
Matrix Compiler2: 13.51 KB object code size  2.1/2.4/[1.5]

