Circuit: * C:\Users\Agus\Documents\GitHub\E2-TPs\TP2\TP2\circuito libro Agus.asc

Warning: Multiple definitions of model "2scr375p" Type: BJT
Warning: Multiple definitions of model "bc857b" Type: BJT
Warning: Multiple definitions of model "bc847c" Type: BJT
Warning: Multiple definitions of model "bc847b" Type: BJT
WARNING: Node N022 is floating.

Direct Newton iteration failed to find .op point.  (Use ".option noopiter" to skip.)
Starting Gmin stepping
Gmin = 10
Gmin = 1.07374
vernier = 0.5
vernier = 0.25
vernier = 0.125
vernier = 0.0625
Gmin = 1.12184
vernier = 0.03125
vernier = 0.015625
Gmin = 1.05021
vernier = 0.0078125
Gmin = 1.02792
vernier = 0.0104167
vernier = 0.00520833
vernier = 0.00694444
vernier = 0.00347222
Gmin = 1.02037
vernier = 0.00173611
Gmin = 1.01551
vernier = 0.00231481
vernier = 0.00115741
vernier = 0.00154321
Gmin = 1.01248
vernier = 0.000771604
vernier = 0.00102881
Gmin = 1.01046
vernier = 0.000514403
Gmin = 1.00904
vernier = 0.00068587
vernier = 0.000914493
vernier = 0.000457247
Gmin = 1.00777
vernier = 0.000609662
vernier = 0.000457246
Gmin = 1.00685
vernier = 0.000609662
vernier = 0.000457246
Gmin = 0
Gmin stepping failed

Starting source stepping with srcstepmethod=0
Source Step = 3.0303%
Source Step = 7.76515%
Source Step = 8.23864%
Source Step = 8.71212%
Source Step = 9.18561%
Source Step = 9.65909%
vernier = 0.0234375
Source Step = 10.2036%
Source Step = 10.9138%
Source Step = 11.6241%
Source Step = 12.3343%
Source Step = 13.0445%
vernier = 0.0351562
Source Step = 13.8258%
Source Step = 14.8911%
Source Step = 15.9564%
Source Step = 17.0218%
Source Step = 18.0871%
vernier = 0.0527344
Source Step = 19.2057%
Source Step = 20.8037%
Source Step = 22.4018%
Source Step = 23.9998%
Source Step = 25.5978%
Source Step = 27.1958%
vernier = 0.0791016
Source Step = 29.5928%
Source Step = 31.9898%
Source Step = 34.3868%
Source Step = 36.7839%
Source Step = 39.1809%
vernier = 0.118652
Source Step = 42.6565%
Source Step = 46.2521%
Source Step = 49.8476%
Source Step = 53.4431%
Source Step = 57.0386%
vernier = 0.177979
Source Step = 62.0724%
Source Step = 67.4657%
Source Step = 72.859%
Source Step = 78.2522%
Source Step = 83.6455%
vernier = 0.266968
Source Step = 90.9265%
Source Step = 99.0164%
Source stepping succeeded in finding the operating point.

N-Period=1
Fourier components of V(vout)
DC component:0.844693

Harmonic	Frequency	 Fourier 	Normalized	 Phase  	Normalized
 Number 	  [Hz]   	Component	 Component	[degree]	Phase [deg]
    1   	 1.000e+4	 1.567e+1	 1.000e+0	   90.53°	    0.00°
    2   	 2.000e+4	 5.345e-4	 3.412e-5	 -178.61°	 -269.14°
    3   	 3.000e+4	 1.327e-4	 8.470e-6	 -147.11°	 -237.64°
    4   	 4.000e+4	 3.438e-4	 2.195e-5	  -12.85°	 -103.38°
    5   	 5.000e+4	 4.254e-4	 2.715e-5	   93.85°	    3.33°
    6   	 6.000e+4	 2.555e-4	 1.631e-5	  114.64°	   24.11°
    7   	 7.000e+4	 2.681e-4	 1.711e-5	 -140.77°	 -231.29°
    8   	 8.000e+4	 1.375e-4	 8.777e-6	   -8.95°	  -99.48°
    9   	 9.000e+4	 2.662e-4	 1.699e-5	   41.56°	  -48.97°
Partial Harmonic Distortion: 0.005813%
Total Harmonic Distortion:   0.000000%



Date: Mon May 22 21:32:07 2023
Total elapsed time: 55.439 seconds.

tnom = 27
temp = 27
method = modified trap
totiter = 1094848
traniter = 1085104
tranpoints = 519291
accept = 368021
rejected = 151270
matrix size = 117
fillins = 180
solver = Normal
Avg thread counts: 1.0/2.0/1.0/1.0
Matrix Compiler1: 18.82 KB object code size  6.2/3.1/[2.5]
Matrix Compiler2: 14.30 KB object code size  2.7/3.4/[2.1]

